Circuit: * C:\Users\Jeff\Google Drive\Robotics\Robosub 2016\Electrical\Power\Low Power\LT3958-24V line.asc

Direct Newton iteration failed to find .op point.  (Use ".option noopiter" to skip.)
Starting Gmin stepping
Gmin = 10
Gmin = 1.07374
Gmin = 0.115292
Gmin = 0.0123794
Gmin = 0.00132923
Gmin = 0.000142725
Gmin = 1.5325e-005
Gmin = 1.6455e-006
Gmin = 1.76685e-007
Gmin = 1.89714e-008
Gmin = 2.03704e-009
Gmin = 2.18725e-010
Gmin = 2.34854e-011
Gmin = 2.52173e-012
Gmin = 2.70769e-013
Gmin = 0
Gmin stepping succeeded in finding the operating point.

Heightened Def Con from 0.000902865 to 0.000902869
Heightened Def Con from 0.00120617 to 0.00120617
Heightened Def Con from 0.00142918 to 0.00142918
Heightened Def Con from 0.00156267 to 0.00156268
Heightened Def Con from 0.00172845 to 0.00172845
Heightened Def Con from 0.00218283 to 0.00218283
Heightened Def Con from 0.00244965 to 0.00244966
Heightened Def Con from 0.00277433 to 0.00277433

Date: Fri Jul 29 13:02:27 2016
Total elapsed time: 29.880 seconds.

tnom = 27
temp = 27
method = modified trap
totiter = 2315607
traniter = 2315231
tranpoints = 626306
accept = 465056
rejected = 161258
matrix size = 40
fillins = 11
solver = Normal
Thread vector: 6.9/5.1[2] 5.5/4.0[2] 0.5/0.6[1] 0.3/0.7[1]  2592/500
Matrix Compiler1: 2.12 KB object code size  0.6/0.5/[0.3]
Matrix Compiler2: off  [0.3]/0.4/0.6


