Circuit: * C:\Users\Jeff\Google Drive\Robosub 2016\Electrical\Power\High Power Board.asc

Per .tran options, skipping operating point for transient analysis.

Date: Fri Jul 01 14:10:20 2016
Total elapsed time: 0.116 seconds.

tnom = 27
temp = 27
method = modified trap
totiter = 2217
traniter = 2217
tranpoints = 1072
accept = 1068
rejected = 4
matrix size = 35
fillins = 15
solver = Normal
Thread vector: 12.6/10.9[2] 4.0/3.0[2] 0.9/1.3[1] 0.1/0.4[1]  2592/500
Matrix Compiler1: 2.87 KB object code size  0.9/0.6/[0.3]
Matrix Compiler2: 2.80 KB object code size  0.5/0.7/[0.2]


